  
       XFOIL         Version 6.99
  
 Calculated polar for: ag18.dat                                        
  
 1 1 Reynolds number fixed          Mach number fixed         
  
 xtrf =   1.000 (top)        1.000 (bottom)  
 Mach =   0.117     Re =     3.500 e 6     Ncrit =   9.000
  
   alpha    CL        CD       CDp       CM     Top_Xtr  Bot_Xtr
  ------ -------- --------- --------- -------- -------- --------
  -2.000   0.0324   0.00535   0.00062  -0.0536   0.7160   0.0306
  -1.500   0.0890   0.00525   0.00048  -0.0535   0.6621   0.0682
  -1.000   0.1456   0.00511   0.00038  -0.0535   0.6063   0.1446
  -0.500   0.2021   0.00500   0.00034  -0.0536   0.5432   0.2457
   0.000   0.2586   0.00500   0.00035  -0.0536   0.4794   0.3337
   0.500   0.3149   0.00504   0.00041  -0.0537   0.4163   0.4246
   1.000   0.3712   0.00508   0.00049  -0.0537   0.3587   0.5247
   1.500   0.4272   0.00505   0.00062  -0.0538   0.3047   0.6681
