  
       XFOIL         Version 6.99
  
 Calculated polar for: ag19.dat                                        
  
 1 1 Reynolds number fixed          Mach number fixed         
  
 xtrf =   1.000 (top)        1.000 (bottom)  
 Mach =   0.117     Re =     3.500 e 6     Ncrit =   9.000
  
   alpha    CL        CD       CDp       CM     Top_Xtr  Bot_Xtr
  ------ -------- --------- --------- -------- -------- --------
  -2.000   0.0404   0.00537   0.00066  -0.0544   0.7272   0.0148
  -1.500   0.0969   0.00528   0.00050  -0.0542   0.6759   0.0383
  -1.000   0.1533   0.00520   0.00039  -0.0541   0.6157   0.0916
  -0.500   0.2097   0.00511   0.00034  -0.0542   0.5493   0.1865
   0.000   0.2659   0.00512   0.00035  -0.0542   0.4758   0.2825
   0.500   0.3221   0.00511   0.00040  -0.0543   0.4075   0.4050
   1.000   0.3783   0.00506   0.00050  -0.0544   0.3465   0.5509
   1.500   0.4337   0.00477   0.00064  -0.0544   0.2950   0.7979
