  
       XFOIL         Version 6.99
  
 Calculated polar for: ag27.dat                                        
  
 1 1 Reynolds number fixed          Mach number fixed         
  
 xtrf =   1.000 (top)        1.000 (bottom)  
 Mach =   0.117     Re =     3.500 e 6     Ncrit =   9.000
  
   alpha    CL        CD       CDp       CM     Top_Xtr  Bot_Xtr
  ------ -------- --------- --------- -------- -------- --------
  -2.000   0.0871   0.00539   0.00065  -0.0648   0.7040   0.0234
  -1.500   0.1439   0.00531   0.00052  -0.0648   0.6557   0.0517
  -1.000   0.2007   0.00520   0.00042  -0.0648   0.6048   0.1128
  -0.500   0.2575   0.00509   0.00038  -0.0649   0.5548   0.1981
   0.000   0.3141   0.00507   0.00038  -0.0649   0.5016   0.2816
   0.500   0.3706   0.00507   0.00043  -0.0650   0.4495   0.3761
   1.000   0.4270   0.00511   0.00052  -0.0650   0.3975   0.4791
   1.500   0.4832   0.00508   0.00066  -0.0651   0.3417   0.6345
