  
       XFOIL         Version 6.99
  
 Calculated polar for: fx082512.dat                                    
  
 1 1 Reynolds number fixed          Mach number fixed         
  
 xtrf =   1.000 (top)        1.000 (bottom)  
 Mach =   0.117     Re =     3.500 e 6     Ncrit =   9.000
  
   alpha    CL        CD       CDp       CM     Top_Xtr  Bot_Xtr
  ------ -------- --------- --------- -------- -------- --------
  -2.000   0.4523   0.00484   0.00073  -0.1951   0.6988   0.2842
  -1.500   0.4968   0.00583   0.00103  -0.1927   0.5201   0.2917
  -1.000   0.5374   0.00715   0.00146  -0.1897   0.2807   0.2970
  -0.500   0.5812   0.00830   0.00187  -0.1873   0.0625   0.3021
   0.000   0.6336   0.00871   0.00208  -0.1864   0.0024   0.3056
   0.500   0.6881   0.00891   0.00228  -0.1859   0.0037   0.3071
   1.000   0.7417   0.00921   0.00265  -0.1852   0.0014   0.3120
