  
       XFOIL         Version 6.99
  
 Calculated polar for: goe286.dat                                      
  
 1 1 Reynolds number fixed          Mach number fixed         
  
 xtrf =   1.000 (top)        1.000 (bottom)  
 Mach =   0.117     Re =     3.500 e 6     Ncrit =   9.000
  
   alpha    CL        CD       CDp       CM     Top_Xtr  Bot_Xtr
  ------ -------- --------- --------- -------- -------- --------
  -2.000   0.1545   0.00775   0.00166  -0.0644   0.3464   0.0025
