  
       XFOIL         Version 6.99
  
 Calculated polar for: goe392.dat                                      
  
 1 1 Reynolds number fixed          Mach number fixed         
  
 xtrf =   1.000 (top)        1.000 (bottom)  
 Mach =   0.117     Re =     3.500 e 6     Ncrit =   9.000
  
   alpha    CL        CD       CDp       CM     Top_Xtr  Bot_Xtr
  ------ -------- --------- --------- -------- -------- --------
  -0.500   0.5085   0.00668   0.00082  -0.1247   0.4351   0.0067
   0.000   0.5717   0.00610   0.00067  -0.1263   0.5152   0.0343
   0.500   0.6208   0.00544   0.00073  -0.1256   0.5019   0.3612
   1.000   0.6750   0.00547   0.00079  -0.1257   0.4912   0.3877
   1.500   0.7283   0.00555   0.00087  -0.1257   0.4775   0.4094
   2.000   0.7335   0.00872   0.00218  -0.1163   0.0033   0.4285
