  
       XFOIL         Version 6.99
  
 Calculated polar for: goe328.dat                                      
  
 1 1 Reynolds number fixed          Mach number fixed         
  
 xtrf =   1.000 (top)        1.000 (bottom)  
 Mach =   0.117     Re =     3.500 e 6     Ncrit =   9.000
  
   alpha    CL        CD       CDp       CM     Top_Xtr  Bot_Xtr
  ------ -------- --------- --------- -------- -------- --------
  -2.000   0.1810   0.00677   0.00150  -0.0800   0.5801   0.0028
  -1.000   0.2976   0.00666   0.00120  -0.0807   0.5206   0.0016
  -0.500   0.3554   0.00666   0.00107  -0.0810   0.4662   0.0167
   0.000   0.4129   0.00689   0.00130  -0.0814   0.4318   0.0236
   0.500   0.4710   0.00693   0.00127  -0.0818   0.4105   0.0243
   1.000   0.5292   0.00688   0.00118  -0.0822   0.3947   0.0260
   1.500   0.5872   0.00691   0.00117  -0.0826   0.3791   0.0276
   2.000   0.6450   0.00697   0.00119  -0.0829   0.3606   0.0302
   2.500   0.6984   0.00801   0.00157  -0.0830   0.2059   0.0357
   3.000   0.7497   0.00951   0.00234  -0.0827   0.0015   0.0594
   4.000   0.8584   0.00828   0.00300  -0.0827   0.0028   1.0000
   4.500   0.9146   0.00864   0.00335  -0.0828   0.0022   1.0000
   5.500   1.0242   0.00978   0.00452  -0.0825   0.0008   1.0000
   6.000   1.0775   0.01049   0.00526  -0.0822   0.0007   1.0000
   6.500   1.1242   0.01218   0.00705  -0.0808   0.0005   1.0000
   7.000   1.1718   0.01346   0.00838  -0.0795   0.0005   1.0000
   7.500   1.2165   0.01495   0.00992  -0.0779   0.0005   1.0000
   8.000   1.2581   0.01663   0.01167  -0.0758   0.0005   1.0000
   8.500   1.2969   0.01853   0.01364  -0.0732   0.0005   1.0000
   9.000   1.3333   0.02063   0.01583  -0.0704   0.0005   1.0000
   9.500   1.3671   0.02297   0.01829  -0.0673   0.0005   1.0000
  10.000   1.3966   0.02559   0.02107  -0.0638   0.0005   1.0000
