  
       XFOIL         Version 6.99
  
 Calculated polar for: goe318.dat                                      
  
 1 1 Reynolds number fixed          Mach number fixed         
  
 xtrf =   1.000 (top)        1.000 (bottom)  
 Mach =   0.117     Re =     3.500 e 6     Ncrit =   9.000
  
   alpha    CL        CD       CDp       CM     Top_Xtr  Bot_Xtr
  ------ -------- --------- --------- -------- -------- --------
  -2.000   0.0943   0.00757   0.00230  -0.0430   0.5076   0.0013
