  
       XFOIL         Version 6.99
  
 Calculated polar for: hq3010.dat                                      
  
 1 1 Reynolds number fixed          Mach number fixed         
  
 xtrf =   1.000 (top)        1.000 (bottom)  
 Mach =   0.117     Re =     3.500 e 6     Ncrit =   9.000
  
   alpha    CL        CD       CDp       CM     Top_Xtr  Bot_Xtr
  ------ -------- --------- --------- -------- -------- --------
  -2.000   0.1986   0.00570   0.00076  -0.0908   0.6975   0.0014
  -1.500   0.2557   0.00563   0.00065  -0.0910   0.6812   0.0015
  -1.000   0.3127   0.00559   0.00059  -0.0911   0.6626   0.0023
  -0.500   0.3689   0.00546   0.00054  -0.0912   0.6353   0.0548
   0.000   0.4227   0.00421   0.00048  -0.0917   0.6125   0.5374
   0.500   0.4786   0.00426   0.00054  -0.0917   0.5802   0.5942
   1.000   0.5339   0.00440   0.00064  -0.0916   0.5380   0.6380
   1.500   0.5881   0.00469   0.00078  -0.0913   0.4808   0.6632
   2.000   0.6422   0.00502   0.00094  -0.0910   0.4264   0.6822
   2.500   0.6900   0.00594   0.00131  -0.0898   0.2863   0.6980
   3.500   0.7798   0.00837   0.00257  -0.0862   0.0007   0.7319
   4.000   0.8338   0.00864   0.00285  -0.0859   0.0008   0.7508
   4.500   0.8873   0.00891   0.00316  -0.0855   0.0010   0.7725
   5.000   0.9403   0.00922   0.00351  -0.0850   0.0013   0.7970
   5.500   0.9925   0.00952   0.00391  -0.0843   0.0019   0.8326
   6.000   1.0421   0.00968   0.00444  -0.0830   0.0019   1.0000
   6.500   1.0916   0.01034   0.00514  -0.0818   0.0017   1.0000
   7.000   1.1371   0.01134   0.00623  -0.0799   0.0013   1.0000
   7.500   1.1816   0.01235   0.00733  -0.0780   0.0008   1.0000
