  
       XFOIL         Version 6.99
  
 Calculated polar for: m1.dat                                          
  
 1 1 Reynolds number fixed          Mach number fixed         
  
 xtrf =   1.000 (top)        1.000 (bottom)  
 Mach =   0.117     Re =     3.500 e 6     Ncrit =   9.000
  
   alpha    CL        CD       CDp       CM     Top_Xtr  Bot_Xtr
  ------ -------- --------- --------- -------- -------- --------
  -2.000  -0.2144   0.00566   0.00128  -0.0016   0.9657   0.0085
  -1.000  -0.1093   0.00575   0.00080   0.0008   0.7726   0.0279
  -0.500  -0.0546   0.00533   0.00064   0.0005   0.6383   0.2358
   0.000  -0.0001   0.00511   0.00058  -0.0000   0.4610   0.4658
   0.500   0.0546   0.00533   0.00064  -0.0006   0.2405   0.6307
   1.000   0.1091   0.00570   0.00081  -0.0009   0.0380   0.7729
   1.500   0.1630   0.00565   0.00094  -0.0005   0.0021   0.8910
   2.000   0.2129   0.00560   0.00109   0.0011   0.0035   0.9658
