  
       XFOIL         Version 6.99
  
 Calculated polar for: mh60.dat                                        
  
 1 1 Reynolds number fixed          Mach number fixed         
  
 xtrf =   1.000 (top)        1.000 (bottom)  
 Mach =   0.117     Re =     3.500 e 6     Ncrit =   9.000
  
   alpha    CL        CD       CDp       CM     Top_Xtr  Bot_Xtr
  ------ -------- --------- --------- -------- -------- --------
  -2.000  -0.1439   0.00593   0.00087  -0.0010   0.5986   0.0982
  -1.500  -0.0877   0.00555   0.00069  -0.0009   0.5764   0.1792
  -1.000  -0.0313   0.00525   0.00058  -0.0009   0.5522   0.2637
  -0.500   0.0252   0.00502   0.00052  -0.0009   0.5240   0.3482
   0.000   0.0821   0.00491   0.00049  -0.0010   0.4933   0.4159
   0.500   0.1390   0.00485   0.00050  -0.0011   0.4607   0.4808
   1.000   0.1956   0.00479   0.00053  -0.0011   0.4281   0.5535
   1.500   0.2517   0.00472   0.00058  -0.0011   0.3953   0.6402
   2.000   0.3065   0.00461   0.00066  -0.0008   0.3644   0.7499
   2.500   0.3578   0.00439   0.00077   0.0004   0.3358   0.8898
   3.000   0.4388   0.00446   0.00093  -0.0050   0.3037   0.9840
   4.000   0.5767   0.00504   0.00125  -0.0107   0.2416   0.9988
   4.500   0.6411   0.00534   0.00144  -0.0126   0.2141   1.0000
   5.000   0.6953   0.00571   0.00168  -0.0123   0.1846   1.0000
   5.500   0.7494   0.00608   0.00195  -0.0119   0.1583   1.0000
   6.000   0.8031   0.00656   0.00228  -0.0116   0.1269   1.0000
   6.500   0.8563   0.00711   0.00268  -0.0112   0.0954   1.0000
   7.000   0.9092   0.00765   0.00310  -0.0108   0.0722   1.0000
   7.500   0.9615   0.00826   0.00360  -0.0103   0.0511   1.0000
   8.000   1.0127   0.00899   0.00421  -0.0097   0.0307   1.0000
   8.500   1.0629   0.00981   0.00493  -0.0090   0.0153   1.0000
   9.000   1.1129   0.01061   0.00569  -0.0083   0.0079   1.0000
   9.500   1.1608   0.01165   0.00670  -0.0073   0.0012   1.0000
  10.000   1.2089   0.01255   0.00767  -0.0063   0.0006   1.0000
