  
       XFOIL         Version 6.99
  
 Calculated polar for: raf25.dat                                       
  
 1 1 Reynolds number fixed          Mach number fixed         
  
 xtrf =   1.000 (top)        1.000 (bottom)  
 Mach =   0.117     Re =     3.500 e 6     Ncrit =   9.000
  
   alpha    CL        CD       CDp       CM     Top_Xtr  Bot_Xtr
  ------ -------- --------- --------- -------- -------- --------
  -1.500  -0.0220   0.00541   0.00055  -0.0340   0.7858   0.0038
  -1.000   0.0314   0.00524   0.00043  -0.0334   0.7535   0.0413
  -0.500   0.0788   0.00438   0.00028  -0.0321   0.6997   0.3369
   0.000   0.1279   0.00431   0.00028  -0.0309   0.6000   0.4729
   1.000   0.2203   0.00523   0.00055  -0.0278   0.2118   0.6934
   1.500   0.2635   0.00579   0.00084  -0.0255   0.0025   0.8370
   2.000   0.3299   0.00568   0.00113  -0.0277   0.0030   0.9770
   2.500   0.3978   0.00649   0.00202  -0.0304   0.0008   0.9924
