  
       XFOIL         Version 6.99
  
 Calculated polar for: raf26.dat                                       
  
 1 1 Reynolds number fixed          Mach number fixed         
  
 xtrf =   1.000 (top)        1.000 (bottom)  
 Mach =   0.117     Re =     3.500 e 6     Ncrit =   9.000
  
   alpha    CL        CD       CDp       CM     Top_Xtr  Bot_Xtr
  ------ -------- --------- --------- -------- -------- --------
  -1.500   0.1270   0.00551   0.00054  -0.0703   0.7127   0.0046
  -0.500   0.2236   0.00468   0.00032  -0.0672   0.6176   0.3368
   0.000   0.2725   0.00472   0.00037  -0.0659   0.5446   0.4318
   0.500   0.3173   0.00510   0.00051  -0.0639   0.4050   0.5239
   1.000   0.3640   0.00503   0.00063  -0.0623   0.3389   0.6853
   1.500   0.3917   0.00578   0.00103  -0.0566   0.0646   0.9019
   2.000   0.4959   0.00623   0.00142  -0.0681   0.0029   0.9942
