  
       XFOIL         Version 6.99
  
 Calculated polar for: sc20503.dat                                     
  
 1 1 Reynolds number fixed          Mach number fixed         
  
 xtrf =   1.000 (top)        1.000 (bottom)  
 Mach =   0.117     Re =     3.500 e 6     Ncrit =   9.000
  
   alpha    CL        CD       CDp       CM     Top_Xtr  Bot_Xtr
  ------ -------- --------- --------- -------- -------- --------
  -2.000  -0.0222   0.00472   0.00062  -0.0447   0.9997   0.0080
  -1.500   0.0588   0.00390   0.00034  -0.0510   0.9824   0.1965
  -1.000   0.1095   0.00412   0.00036  -0.0509   0.5882   0.5816
  -0.500   0.1641   0.00495   0.00048  -0.0516   0.2337   0.6976
   0.000   0.2192   0.00570   0.00067  -0.0519   0.0081   0.7343
   0.500   0.2747   0.00584   0.00086  -0.0521   0.0064   0.7638
   1.000   0.3301   0.00594   0.00095  -0.0523   0.0044   0.7871
   1.500   0.3859   0.00619   0.00130  -0.0522   0.0018   0.8159
