  
       XFOIL         Version 6.99
  
 Calculated polar for: usa46.dat                                       
  
 1 1 Reynolds number fixed          Mach number fixed         
  
 xtrf =   1.000 (top)        1.000 (bottom)  
 Mach =   0.117     Re =     3.500 e 6     Ncrit =   9.000
  
   alpha    CL        CD       CDp       CM     Top_Xtr  Bot_Xtr
  ------ -------- --------- --------- -------- -------- --------
  -1.500   0.1162   0.00569   0.00053  -0.0663   0.6383   0.0035
  -1.000   0.1698   0.00540   0.00036  -0.0658   0.5752   0.1041
  -0.500   0.2247   0.00535   0.00037  -0.0655   0.5355   0.1549
   0.000   0.2802   0.00537   0.00037  -0.0654   0.5094   0.1709
   0.500   0.3353   0.00536   0.00039  -0.0652   0.4784   0.2134
   1.000   0.3831   0.00599   0.00061  -0.0642   0.2496   0.3840
   2.000   0.4847   0.00685   0.00136  -0.0624   0.0030   0.6770
   2.500   0.5380   0.00727   0.00205  -0.0616   0.0012   0.7451
