  
       XFOIL         Version 6.99
  
 Calculated polar for: usa50.dat                                       
  
 1 1 Reynolds number fixed          Mach number fixed         
  
 xtrf =   1.000 (top)        1.000 (bottom)  
 Mach =   0.117     Re =     3.500 e 6     Ncrit =   9.000
  
   alpha    CL        CD       CDp       CM     Top_Xtr  Bot_Xtr
  ------ -------- --------- --------- -------- -------- --------
  -1.000   0.1291   0.00645   0.00066  -0.0513   0.4653   0.0042
  -0.500   0.1876   0.00607   0.00046  -0.0515   0.5256   0.0031
   0.000   0.2293   0.00481   0.00041  -0.0491   0.5110   0.4676
   0.500   0.2768   0.00438   0.00044  -0.0476   0.4946   0.6602
   1.000   0.3183   0.00385   0.00049  -0.0446   0.4810   0.8732
   1.500   0.3928   0.00537   0.00097  -0.0502   0.1337   0.9803
   2.000   0.4402   0.00612   0.00131  -0.0486   0.0037   0.9789
   2.500   0.4701   0.00650   0.00175  -0.0425   0.0011   0.9650
