  
       XFOIL         Version 6.99
  
 Calculated polar for: vr8b.dat                                        
  
 1 1 Reynolds number fixed          Mach number fixed         
  
 xtrf =   1.000 (top)        1.000 (bottom)  
 Mach =   0.117     Re =     3.500 e 6     Ncrit =   9.000
  
   alpha    CL        CD       CDp       CM     Top_Xtr  Bot_Xtr
  ------ -------- --------- --------- -------- -------- --------
  -1.500  -0.1022   0.00862   0.00162  -0.0069   0.0206   0.0028
   0.000   0.0775   0.00869   0.00175  -0.0098   0.0184   0.0132
   0.500   0.1380   0.00898   0.00206  -0.0110   0.0180   0.0168
   1.000   0.1974   0.00894   0.00202  -0.0119   0.0172   0.0179
   1.500   0.2577   0.00910   0.00218  -0.0131   0.0164   0.0187
   2.000   0.3182   0.00949   0.00256  -0.0144   0.0160   0.0193
   2.500   0.3792   0.01043   0.00347  -0.0162   0.0156   0.0201
